https://github.com/saisai666666/eos730.git
https://github.com/wisaly/qtbase_zh.git
https://github.com/remy83/parquet-mr.git
https://github.com/remy83/parquet-mr.git
https://github.com/shulianghe/node-sqlite3.git
https://github.com/paullasarev/devtools_training_app.git
https://github.com/Mo7amedFouad/fast-twitter-label.git
https://github.com/ebatiano/AdBuddizXamarin.git
https://github.com/yueyueniao2012/cling.git
https://github.com/lauraben/Muscle-building-676.git
https://github.com/lilikokalova/lili.git
https://github.com/cancelpc/RazorEngineNET4.0.git
https://github.com/kenparker/JavaCodeExamples.git
https://github.com/ruxia/james12802.github.io.git
https://github.com/HarveyZone/iOSSnippet.git
https://github.com/HarveyZone/iOSSnippet.git
https://github.com/katropine/springmvcrest.git
https://github.com/cristalblock/Spoon-Knife.git
https://github.com/reaganum/seo-sunshine-coast-No-Further-a-Mystery.git
https://github.com/wdq1103/MyAngularPhoneGapProject.git
https://github.com/Aliasleopold/transport_3.git
https://github.com/nickbar86/hello-world.git
https://github.com/ee0703/pixyll-zh-cn.git
https://github.com/kaichao/Point-In-Polygon.git
https://github.com/lishuailibertine/ANBlurredImageView.git
https://github.com/quicknquiet/theme-apex.git
https://github.com/quicknquiet/theme-apex.git
https://github.com/autosquid/VisualHull.git
https://github.com/autosquid/VisualHull.git
https://github.com/xingzhixi/SessionServer.git
https://github.com/delphine61/Getting-My-glass-boundaries-glass-pool-fencing-perth-To-Work.git
https://github.com/akpotosufredrick/bambooRevolution.git
https://github.com/bitstars/meta.git
https://github.com/septedmgimp/Mac-dev-setup.git
https://github.com/septedmgimp/Mac-dev-setup.git
https://github.com/nimeshjohri/jQuery-UI-Tabs.git
https://github.com/nmallampet/kmeans.git
https://github.com/MagnetoHydroDynamics/bytestring.git
https://github.com/ruxia/lagom-orange.git
https://github.com/oscartl/MGWUGameTemplate-Spritebuilder.git
https://github.com/oscartl/MGWUGameTemplate-Spritebuilder.git
https://github.com/salahtehran/Android-UI-Tutorials.git
https://github.com/rajasoun/expresso.git
https://github.com/rajasoun/expresso.git
https://github.com/phiat/bracket-matcher.git
https://github.com/kievan/chat.git
https://github.com/kievan/chat.git
https://github.com/septedmgimp/proxychains-ng.git
https://github.com/septedmgimp/proxychains-ng.git
https://github.com/gwencoley6/http-svelmeantiwrinkle.com-aneu-anti-aging-cream-.git
https://github.com/gwencoley6/http-svelmeantiwrinkle.com-aneu-anti-aging-cream-.git
https://github.com/yangman-c/pry.git
https://github.com/TuxUbuntu/spiderbot.git
https://github.com/TuxUbuntu/spiderbot.git
https://github.com/andrewsohn/wedsolution.git
https://github.com/tegan9382/Top-house-removals-perth-Secrets.git
https://github.com/deirdresj/New-Step-by-Step-Map-For-cantilever-racking-systems.git
https://github.com/zhangyanrui/CJAMacros.git
https://github.com/mcmwhfy/chiefRoacka.git
https://github.com/liliakai/jquery.git
https://github.com/tang86/ThinkPHPUnit.git
https://github.com/tang86/ThinkPHPUnit.git
https://github.com/bikongyouran/hadoop.git
https://github.com/Jereme1024/RAS.git
https://github.com/Aro2220/Bayshore.git
https://github.com/paranhaslett/Syntactic-Sugar.git
https://github.com/paranhaslett/Syntactic-Sugar.git
https://github.com/pratik7437/2048.git
https://github.com/pratik7437/2048.git
https://github.com/railsuser2014/docker_rails_dev_env.git
https://github.com/railsuser2014/docker_rails_dev_env.git
https://github.com/hunglin/spark-bakeoff.git
https://github.com/hunglin/spark-bakeoff.git
https://github.com/magdalener2/seo-company-perth-No-Further-a-Mystery.git
https://github.com/magdalener2/seo-company-perth-No-Further-a-Mystery.git
https://github.com/myutwo150/mslab_III.git
https://github.com/sekon-am/poolglass.git
https://github.com/me2r036/source-code-pro.git
https://github.com/nikhildesai/FileUploadServer.git
https://github.com/magican/bash_scripts.git
https://github.com/mccullal8/GoStudy.git
https://github.com/matsu911/pty.js.git
https://github.com/ballad/scala.git
https://github.com/ballad/scala.git
https://github.com/ankurmahiwal118028/Codes.git
https://github.com/omar9483/The-best-Side-of-removals-perth.git
https://github.com/sanfordmd6/mezzanine-storage-systems-Things-To-Know-Before-You-Buy.git
https://github.com/yangzilong1986/CMStudio.git
https://github.com/chiahsichang/cloudfoundry30days.git
https://github.com/siwangqishiq/FactoryRun.git
https://github.com/chriskrohn/dotfiles.git
https://github.com/Eakel/bootstrap.git
https://github.com/funnxb/jieba-analysis.git
https://github.com/chrisforbes/lazymesa.git
https://github.com/chrisforbes/lazymesa.git
https://github.com/aroraumang/trytond-sale-available-stock.git
https://github.com/quachngoctu/BoostforAndroid.git
https://github.com/johnetta483/New-Step-by-Step-Map-For-seo-services-sydney.git
https://github.com/hyeunny/curriculum.git
https://github.com/showerliang/hello-world.git
https://github.com/ruxia/nlippisWebsite.git
https://github.com/rainyear/flasky.git
https://github.com/stellatigre/web-aesthetics.git
https://github.com/glennfriend/gear.git
https://github.com/HsiaTsing/deformation-transfer.git
https://github.com/claudia60/Top-Guidelines-Of-seo-gold-coast.git
https://github.com/coreyker/dnn-mgr.git
https://github.com/zzycami/kxsmb.git
https://github.com/zzycami/kxsmb.git
https://github.com/NashLegend/MaterialDesignTest.git
https://github.com/skyserpent/PushPlugin.git
https://github.com/johnetta483/The-best-Side-of-seo-services-sydney.git
https://github.com/nomex/exploit-exercises.git
https://github.com/zuitaibai/css_LB.git
https://github.com/liujuncheng/gmf.git
https://github.com/davidlashlee/ProjectEuler.git
https://github.com/davidlashlee/ProjectEuler.git
https://github.com/fuerchter/TicTacToe.git
https://github.com/fuerchter/TicTacToe.git
https://github.com/ruxia/cahoon.git
https://github.com/ruxia/cahoon.git
https://github.com/Vitalinux-DGA-ProgSoftLibre/vx-dga-crear-usuarios-eq-profesor.git
https://github.com/Vitalinux-DGA-ProgSoftLibre/vx-dga-crear-usuarios-eq-profesor.git
https://github.com/avinashsivaraman/Ds.git
https://github.com/erick-ostorga/tienda.git
https://github.com/timesdaughter/remotegit.git
https://github.com/skade/db-key.git
https://github.com/LaurentGruber/BulletinBundle.git
https://github.com/staszekj/ELTrueSIte.git
https://github.com/MorattelD/XBMCnfoMoviesImporter.bundle.git
https://github.com/delphine61/5-Tips-about-glass-boundaries-glass-pool-fencing-perth-You-Can-Use-Today.git
https://github.com/xbl179909/material-design-icons.git
https://github.com/fourcels/gfw.git
https://github.com/manishjesani/payments-chase-orbital-paymentech.git
https://github.com/Frsq/TestShipping.git
https://github.com/daniel158elsabl/Black-friday-Discount-Webhosting.git
https://github.com/kinsuft/test100.git
https://github.com/kinsuft/test100.git
https://github.com/huadaonan/mongomigrate.git
https://github.com/mcpherrinm/irc-reddit.git
https://github.com/simenarvnes/HomeCare.git
https://github.com/ballad/scalaz.git
https://github.com/ballad/scalaz.git
https://github.com/wuxuejian/xzluomen.git
https://github.com/imclab/bare_glass_app.git
https://github.com/alenliang/iOS8-Sampler.git
https://github.com/tegan9382/Helping-The-others-Realize-The-Advantages-Of-house-removals-perth.git
https://github.com/NJIRUBOB/hello--world.git
https://github.com/andyw94/mygithubpage.git
https://github.com/andyw94/mygithubpage.git
https://github.com/xuyunfeng1202/05_KyoHelper.git
https://github.com/alenliang/MHVideoPhotoGallery.git
https://github.com/alenliang/DoubanAlbum.git
https://github.com/imclab/USB_flashlight_Glass.git
https://github.com/imclab/USB_flashlight_Glass.git
https://github.com/smrtcap/captest.git
https://github.com/nicholas-kebbas/chat-example.git
https://github.com/imclab/Google_Glass_Trinket.git
https://github.com/Whiletru3/dapper-dot-net.git
https://github.com/nvhoc/ObjectAL-for-iPhone.git
https://github.com/EricSpace/OProjectSs.git
https://github.com/imclab/Plinko-Poetry.git
https://github.com/sanfordmd6/The-Basic-Principles-Of-wedding-photographers-perth-.git
https://github.com/Adjeiinfo/PythonLibrary.git
https://github.com/ccsoft/cordova-vungle.git
https://github.com/omar9483/New-Step-by-Step-Map-For-cheap-removals-perth.git
https://github.com/RobinsonWang/echarts.git
https://github.com/8miles/8miles.github.io.git
https://github.com/8miles/8miles.github.io.git
https://github.com/abhilash503001/angular.js.git
https://github.com/wheelcomplex/go-cgroup.git
https://github.com/noah25f6dsgblog/Epi-Lasik-Singapore-Fundamentals-Explained.git
https://github.com/DjebbZ/gss-paris-js.git
https://github.com/xjapan/twilio.git
https://github.com/nelbe/Actividad.git
https://github.com/sanfordmd6/Rumored-Buzz-on-wedding-photographers-perth.git
https://github.com/sanfordmd6/Rumored-Buzz-on-wedding-photographers-perth.git
https://github.com/loadsfaster/ccc.git
https://github.com/programowanie/bazy_danych.git
https://github.com/kennyQi/rocketmq-console.git
https://github.com/yutin1987/gulp-livescript.git
https://github.com/yyny1789/LMObjSerialization.git
https://github.com/chetqh7/Examine-This-Report-on-perth-removals.git
https://github.com/jjl/prj.el.git
https://github.com/pankajksharma/gsfhack.git
https://github.com/omar9483/5-Simple-Statements-About-removals-perth-Explained.git
https://github.com/yuandayue/pos.git
https://github.com/lseyesl/node-lessons.git
https://github.com/lseyesl/node-lessons.git
https://github.com/Rafalski/php-login.git
https://github.com/Rafalski/php-login.git
https://github.com/zhuyafei/Sparse_Representation.git
https://github.com/deirdresj/Little-Known-Facts-About-landscapers-perth..git
https://github.com/zhexy/zhexy_Poj.git
https://github.com/sekon-am/getlance.git
https://github.com/app2641/tori.jp.git
https://github.com/luciaGCodes/Mac-dev-setup.git
https://github.com/ryan47l7ixmblog/langley-liquor-store-Secrets.git
https://github.com/yenlung/yenlung.github.io.git
https://github.com/walkthetalk/barebox_s3c6410.git
https://github.com/tksiaokia/phonegap.git
https://github.com/baptistedonaux/docker-panel.git
https://github.com/facu2108/test_rep.git
https://github.com/kaniblu/krr-clips-endview.git
https://github.com/kinsuft/ybsdadjsal.git
https://github.com/deirdresj/landscapers-perth---An-Overview.git
https://github.com/deirdresj/landscapers-perth---An-Overview.git
https://github.com/yajinn/jquery.mb.YTPlayer.git
https://github.com/ryan47l7ixmblog/New-Step-by-Step-Map-For-langley-liquor-store.git
https://github.com/ryan47l7ixmblog/New-Step-by-Step-Map-For-langley-liquor-store.git
https://github.com/reimen/RobotRace.git
https://github.com/Chilledheart/google-styleguide.git
https://github.com/mainframe/docker-rabbitmq-cluster.git
https://github.com/mrozmanith/myapp.git
https://github.com/Yougarden/yjy.git
https://github.com/yoshimalucky/jsk_common.git
https://github.com/nholland94/vim-dotfiles.git
https://github.com/betz0r/redditvidexport.git
https://github.com/betz0r/redditvidexport.git
https://github.com/ryan47l7ixmblog/Facts-About-langley-liquor-store-Revealed.git
https://github.com/ryan47l7ixmblog/Facts-About-langley-liquor-store-Revealed.git
https://github.com/deirdresj/The-best-Side-of-landscapers-perth.git
https://github.com/firechungelaile/japanCode.git
https://github.com/amna-malik/AKInteractiveBarProxy.git
https://github.com/mohitjain/githooks.git
https://github.com/mohitjain/githooks.git
https://github.com/blueitem/primenumbers.git
https://github.com/blueitem/primenumbers.git
https://github.com/jreitter/phosbox.git
https://github.com/jreitter/phosbox.git
https://github.com/juneyoung/OpenKinect-for-Processing.git
https://github.com/xuyisheng/cardboard.git
https://github.com/jusip/developers.git
https://github.com/soulesjms/JournalRepository.git
https://github.com/CosmonautVentures/TheCosmonaut.git
https://github.com/CosmonautVentures/TheCosmonaut.git
https://github.com/Goldenblum/laravel-tagging.git
https://github.com/marsanla/node-oauth2-server-restify.git
https://github.com/DavidHernandez/Drupal-create-features.git
https://github.com/DavidHernandez/Drupal-create-features.git
https://github.com/mpra/homebrew-cask.git
https://github.com/david272aunhblo/Gleitlager-from-Germany.git
https://github.com/david272aunhblo/Gleitlager-from-Germany.git
https://github.com/VPatrick/AlgoDat.git
https://github.com/profitbot85m0un/The-Lasik-Singapore-Diaries.git
https://github.com/jokenwang/QuickNews.git
https://github.com/jokenwang/QuickNews.git
https://github.com/warp10/gasistafelice.git
https://github.com/geraltofrivia/SQLGenerator.git
https://github.com/geraltofrivia/SQLGenerator.git
https://github.com/bensonzhow/BiaoGeMusicRepository.git
https://github.com/bensonzhow/BiaoGeMusicRepository.git
https://github.com/ikantam/ror_samples.git
https://github.com/ikantam/ror_samples.git
https://github.com/lotaris/rox-jee-itf-maven-plugin.git
https://github.com/lotaris/rox-jee-itf-maven-plugin.git
https://github.com/nimeshjohri/jQuery-UI-Widgets.git
https://github.com/adamralph/colored-console.git
https://github.com/ruxia/personal-site.git
https://github.com/dj31416/yii2.git
https://github.com/zuitaibai/html_LB.git
https://github.com/takecy/RxJava.git
https://github.com/will-Do/lxc.git
https://github.com/will-Do/lxc.git
https://github.com/withyou/AndroidDynamicLoader.git
https://github.com/claribel5z/The-best-Side-of-pool-glass-fencing-perth.git
https://github.com/suwijak/demos.jquerymobile.com.git
https://github.com/deirdresj/Not-known-Factual-Statements-About-cantilever-racking-systems-.git
https://github.com/ruxia/thewebsite.git
https://github.com/roberthoog/1DV402.S2.L1A.git
https://github.com/maalls/headtrackingdemo.git
https://github.com/maalls/headtrackingdemo.git
https://github.com/ruxia/jekyllthemes.git
https://github.com/tegan9382/The-Greatest-Guide-To-house-removals-perth.git
https://github.com/tegan9382/The-Greatest-Guide-To-house-removals-perth.git
https://github.com/leaderlee/MJRefresh.git
https://github.com/Philippe12/u-boot-sunxi.git
https://github.com/Philippe12/u-boot-sunxi.git
https://github.com/ruxia/herring-cove.git
https://github.com/ruxia/herring-cove.git
https://github.com/xplaces/test.git
https://github.com/xplaces/test.git
https://github.com/xiaoDC/grunt.git
https://github.com/hipolitoj9/New-Step-by-Step-Map-For-seo-gold-coast.git
https://github.com/petebacondarwin/material.git
https://github.com/anbalagan33/tesasd.git
https://github.com/alvsgithub/alerta.git
https://github.com/alvsgithub/alerta.git
https://github.com/william65w8bipb/5-Easy-Facts-About-Seo-Philippines-Described.git
https://github.com/IlhamArrouf/IlhamGanteng.git
https://github.com/noah25f6dsgblog/Epi-Lasik-Singapore---An-Overview.git
https://github.com/jmiettinen/homebrew-science.git
https://github.com/charsten/Jingle.git
https://github.com/consti/s3_cache_control_setter.git
https://github.com/consti/s3_cache_control_setter.git
https://github.com/dustyface/month_share.git
https://github.com/dqiong/HelloWorld.git
https://github.com/foio/ace.git
https://github.com/bhovhannes/playground.git
https://github.com/william65w8bipb/Seo-Philippines-Things-To-Know-Before-You-Buy.git
https://github.com/QABC/NodeExpressGit.git
https://github.com/QABC/NodeExpressGit.git
https://github.com/sanfordmd6/The-Basic-Principles-Of-pallet-racking-melbourne-.git
https://github.com/sanyinchen/Antask.git
https://github.com/sanyinchen/Antask.git
https://github.com/chetqh7/5-Essential-Elements-For-perth-removals.git
https://github.com/ahtewlg7/tess-two.git
https://github.com/HosseinMirzaei/first_git_remote.git
https://github.com/urwish/NotesMates.git
https://github.com/urwish/NotesMates.git
https://github.com/wenzhixue/elite-proxy-finder.git
https://github.com/mukundachary/mukunda.git
https://github.com/ruxia/SinglePaged.git
https://github.com/liujinhou/spindle.git
https://github.com/fourseven/loop-apcmini.git
https://github.com/KevinSteve/FlexCoreReloaded.git
https://github.com/zyinshi/ImageProcessing.git
https://github.com/hdwmp123/maven_pm.git
https://github.com/rmaqueda/yosemiteInstall.git
https://github.com/rmaqueda/yosemiteInstall.git
https://github.com/avinashsivaraman/summa.git
https://github.com/JamesPHoughton/geopandas.git
https://github.com/zlzlovezl/DHTCrawler.git
https://github.com/ca11ado/s_nazvaniem_beda.git
https://github.com/skyfe79/Cocoa-GL-Tutorial.git
https://github.com/cherishsir/mentohust.git
https://github.com/skyfe79/Cocoa-GL-Tutorial-2.git
https://github.com/skyfe79/Cocoa-GL-Tutorial-2.git
https://github.com/asm-products/banyan-ios.git
https://github.com/skyfe79/Cocoa-GL-Tutorial-3.git
https://github.com/houstonseo27s2a/New-Step-by-Step-Map-For-Houston-SEO.git
https://github.com/Jens2014/ZenPhoto20_JKP.git
https://github.com/dingxiangyang/webgl-globe.git
https://github.com/lonelystoner1/xyz.git
https://github.com/houstonseo27s2a/Getting-My-Houston-SEO-To-Work.git
https://github.com/bedrierol/simple-oauth2.git
https://github.com/bedrierol/simple-oauth2.git
https://github.com/formatCvt/gitlab-deploy.git
https://github.com/PiranhaCMS/Piranha.vNext.git
https://github.com/matejkriz/ui-select.git
https://github.com/alenliang/Reachability.git
https://github.com/marquismark/EnvayaSMS.git
https://github.com/sycdtk/WolffyText.git
https://github.com/sycdtk/WolffyText.git
https://github.com/Alvin-jie/Alvin-jie.git
https://github.com/leehowon/Source.git
https://github.com/leehowon/Source.git
https://github.com/profitbot85m0un/The-5-Second-Trick-For-Lasik-Singapore.git
https://github.com/Eakel/Cikonss.git
https://github.com/omar9483/5-Simple-Statements-About-emergency-vet-services-Explained.git
https://github.com/josemsanchiz/sails.git
https://github.com/denisakov/shepherd.git
https://github.com/denisakov/shepherd.git
https://github.com/uxebu/code-smells-kata.git
https://github.com/delphine61/The-2-Minute-Rule-for-perth-mortgage-brokers.git
https://github.com/delphine61/The-2-Minute-Rule-for-perth-mortgage-brokers.git
https://github.com/vidluther/oh-my-zsh.git
https://github.com/vidluther/oh-my-zsh.git
https://github.com/jemygraw/api.v6.git
https://github.com/Varmelion/wat.git
https://github.com/delphine61/5-Easy-Facts-About-cheap-removals-perth-Described.git
https://github.com/cbtogu/gesture-recognition.git
https://github.com/verthandi/.emacs.d.git
https://github.com/AntonSikret87/TestAnton2ProjMisha.git
https://github.com/soren/twonky-common-utils.git
https://github.com/cniis/bjdc.git
https://github.com/cniis/bjdc.git
https://github.com/Huanglaoxie/download.git
https://github.com/Arnooo/angular-leaflet-directive.git
https://github.com/vlaw/open-in-mou.git
https://github.com/kaszko/tdd-legacy-product.git
https://github.com/HerculesCE/swing.git
https://github.com/HenningBredenkoetter/osm-superbright.tm2.git
https://github.com/HenningBredenkoetter/osm-superbright.tm2.git
https://github.com/markohlebar/BIND.git
https://github.com/rahulkavale/spark-examples.git
https://github.com/rahulkavale/spark-examples.git
https://github.com/Varmelion/w.git
https://github.com/Varmelion/w.git
https://github.com/liufei0106/my_repo.git
https://github.com/e-jigsaw/closure-compiler-es6-compat-table.git
https://github.com/delphine61/Fascination-About-cheap-removals-perth.git
https://github.com/delphine61/Fascination-About-cheap-removals-perth.git
https://github.com/com1lc/myServer-1.git
https://github.com/com1lc/myServer-1.git
https://github.com/xie-dev/cpgf.git
https://github.com/xie-dev/cpgf.git
https://github.com/maydayzm/Scut.git
https://github.com/maydayzm/Scut.git
https://github.com/mtecjojo/1029d.git
https://github.com/yagi815/automation_swift_keystone.git
https://github.com/yagi815/automation_swift_keystone.git
https://github.com/djayzeus/rigse.git
https://github.com/sekon-am/videoslider.git
https://github.com/linghuifeng/AngularRecess.git
https://github.com/HapCoderWei/MiniQ.git
https://github.com/KKStudio/gallery.git
https://github.com/chjund/www.html5rocks.com.git
https://github.com/chjund/www.html5rocks.com.git
https://github.com/jedateach/silverstripe-addressable.git
https://github.com/nelson906/resort.git
https://github.com/CtripH5/file.git
https://github.com/elta/mem_calculator.git
https://github.com/Ottermad/EverlesslyChatting.git
https://github.com/Ottermad/EverlesslyChatting.git
https://github.com/shenkwen/machinelearning.git
https://github.com/shenkwen/machinelearning.git
https://github.com/chickenlove/ChromeSnifferPlus.git
https://github.com/mel4/seo-perth-Fundamentals-Explained.git
https://github.com/Desertsnowman/caldera-forms-custom-field-boilerplate.git
https://github.com/Desertsnowman/caldera-forms-custom-field-boilerplate.git
https://github.com/delphine61/The-best-Side-of-migration-agents-perth.git
https://github.com/narlabs001/OSM-Users.git
https://github.com/hipolitoj9/5-Simple-Statements-About-seo-gold-coast-Explained.git
https://github.com/richbeales/openhab-cfg.git
https://github.com/wudongpo/netty.git
https://github.com/devanshramen/BreakfastSDK-Android.git
https://github.com/raymondbarrot/Ratchet.git
https://github.com/xssworm/redis-async.git
https://github.com/paddx01/test-test01.git
https://github.com/paddx01/test-test01.git
https://github.com/zealotous/task.git
https://github.com/zealotous/task.git
https://github.com/nifrasismail/bootstrapvalidator.git
https://github.com/tovstyga/animationBox.git
https://github.com/yang0123shu/ChineseZodiac.git
https://github.com/suhailmj/Project.git
https://github.com/CtripH5/canvas.git
https://github.com/GridUser/SE-Final-Project.git
https://github.com/GridUser/SE-Final-Project.git
https://github.com/shinyapps/deploy.git
https://github.com/Vitaliy-Yarovuy/ui-test-work.git
https://github.com/moin19/android.demo.git
https://github.com/gunmetal313/crystalmpq.git
https://github.com/gunmetal313/crystalmpq.git
https://github.com/bhanuc/re-1.git
https://github.com/Jereme1024/dotfiles.git
https://github.com/Flyu/HenterGEO.git
https://github.com/Flyu/HenterGEO.git
https://github.com/TPS2016/C-.git
https://github.com/TPS2016/C-.git
https://github.com/EricSpace/Scripts.git
https://github.com/iridance/jquery.simpledialog.git
https://github.com/reprofy/crypt_lab5.git
https://github.com/reprofy/crypt_lab5.git
https://github.com/omar9483/A-Secret-Weapon-For-cantilever-shelf.git
https://github.com/omar9483/A-Secret-Weapon-For-cantilever-shelf.git
https://github.com/ashan3/README.git
https://github.com/menghan/bufexplorer.zip.git
https://github.com/HUNGCHIHMING/BluetoothSerial.git
https://github.com/hipolitoj9/Everything-about-seo-gold-coast.git
https://github.com/alexislitool/hiredis.git
https://github.com/lonelystoner1/abc.git
https://github.com/alexandder/functionalProgramming.git
https://github.com/Retroduino/NES-Adapter.git
https://github.com/Retroduino/NES-Adapter.git
https://github.com/lishuailibertine/MBProgressHUD.git
https://github.com/lishuailibertine/MBProgressHUD.git
https://github.com/weiliank/jquery-backstretch.git
https://github.com/Joanlove526/XHNewsFrameworkExample.git
https://github.com/Joanlove526/XHNewsFrameworkExample.git
https://github.com/minderm/yii2-redactor.git
https://github.com/wangxiaofei/homebrew.git
https://github.com/chenlnwuhan/fragment.git
https://github.com/chenlnwuhan/fragment.git
https://github.com/infoyou/SwiftDemo.git
https://github.com/infoyou/SwiftDemo.git
https://github.com/wygdove/webmagic.git
https://github.com/wygdove/webmagic.git
https://github.com/guillaumevalverde/Oulala-Text.git
https://github.com/Winston1029/vagrant-django-template.git
https://github.com/tremble/config-tools.git
https://github.com/xplaces/xplacesCore.git
https://github.com/Ephzent/gfwlist2pac.git
https://github.com/Eakel/Buttons.git
https://github.com/dominicwhittle/Toolkit-for-Less-CSS.git
https://github.com/Wierus/UserGate4WebStatistics.git
https://github.com/TimoP/ifttt-webhook.git
https://github.com/TimoP/ifttt-webhook.git
https://github.com/horryq/cocos2d-x.git
https://github.com/zwlijun/cropper.git
https://github.com/zwlijun/cropper.git
https://github.com/luisxiaomai/beyond-page-metrics.git
https://github.com/whitehat101/iliketurtles.git
https://github.com/retgoat/predawn.git
https://github.com/retgoat/predawn.git
https://github.com/seraphcxl/tornado.git
https://github.com/profitbot19g0bf/The-best-Side-of-SEO-Outsourcing-Philippines.git
https://github.com/athirahramzi/ChildBrowser.git
https://github.com/OpenTechSchool/sql-tutorial.git
https://github.com/squeezewrt/squeezewrt.git
https://github.com/squeezewrt/squeezewrt.git
https://github.com/kobrinartem/getcloudify.org.git
https://github.com/kobrinartem/getcloudify.org.git
https://github.com/ghakan/java2_BibliotecaJavaEjemplos.git
https://github.com/ghakan/java2_BibliotecaJavaEjemplos.git
https://github.com/pakkua80/snipe-it.git
https://github.com/mfkwvf/datetimepicker.git
https://github.com/mfkwvf/datetimepicker.git
https://github.com/luanpao888/tb_tddl.git
https://github.com/thaddea01/-KC4.COX.KR-.git
https://github.com/profitbot19g0bf/5-Easy-Facts-About-SEO-Outsourcing-Philippines-Described.git
https://github.com/e-jigsaw/6to5-es6-compat-table.git
https://github.com/profitbot85m0un/Not-known-Details-About-Lasik-Singapore-.git
https://github.com/cheshire1980/SU-Code.git
https://github.com/eshleebien/phaser.git
https://github.com/omar9483/The-best-Side-of-emergency-vet-services.git
https://github.com/zainussami/crSimulator.git
https://github.com/zainussami/crSimulator.git
https://github.com/pettevi/koodikoulu.git
https://github.com/fh-23/playground.git
https://github.com/tongguotong/StudyDemo.git
https://github.com/BryanWoo/code-standards.git
https://github.com/Mr7Cat/MaterialDesignLibrary.git
https://github.com/Mr7Cat/MaterialDesignLibrary.git
https://github.com/d0ngw/dubbo.git
https://github.com/zhaoyanhong/Open-DoVision.git
https://github.com/329377653/awesome-python-webapp.git
https://github.com/329377653/awesome-python-webapp.git
https://github.com/zhouyuan/teuthology.git
https://github.com/kongscn/caret.git
https://github.com/Aro2220/ScannerApp.git
https://github.com/gjbmxy/rjgc.git
https://github.com/iGormilhit/ORD-notes.git
https://github.com/thadde01/-KC4.COX.KR-.git
https://github.com/snordrapidimages/rethinkdb-migrate.git
https://github.com/aglasspool/santinska.git
https://github.com/crossjs/nprogress.git
https://github.com/abaticle/sapui5.git
https://github.com/zainussami/CR-Simulator.git
https://github.com/Plambir/emacs-bootstrap.git
https://github.com/mckold/android_local_razrqcom.git
https://github.com/dkc515/ds3231.git
https://github.com/cbtogu/Kinect-hack.git
https://github.com/cbtogu/Kinect-hack.git
https://github.com/dorea/MyOneGit.git
https://github.com/dorea/MyOneGit.git
https://github.com/ivargrimstad/mvc-samples.git
https://github.com/haii/AndroidSinaWeibo.git
https://github.com/haii/AndroidSinaWeibo.git
https://github.com/thadde01/-KC4.COX.KR-AAA.git
https://github.com/nimeshjohri/Dashboard-App.git
https://github.com/Pythoner-xu/CocosBuilder.git
https://github.com/palshaw/nodejs-officegen-japanese-example.git
https://github.com/Blank-Yang/hello-word.git
https://github.com/Blank-Yang/hello-word.git
https://github.com/VanbOK/affiliate-program.git
https://github.com/lazycrazyowl/probability_cheatsheet.git
https://github.com/MinnieBest/redis-monitor.git
https://github.com/Lilacs/besike-ios-FingerPaint.git
https://github.com/vimishor/bolt.git
https://github.com/palshaw/officegen.git
https://github.com/palshaw/officegen.git
https://github.com/mataki/qiitakana.git
https://github.com/thadde01/-KC4.COX.KR-A.git
https://github.com/thadde01/-KC4.COX.KR-A.git
https://github.com/mkstarr/godot.git
https://github.com/mkstarr/godot.git
https://github.com/xidianzyh/folly.git
https://github.com/MegaThomas/Arduino-Lib.HMC5883L.git
https://github.com/xidianzyh/fatal.git
https://github.com/delphine61/migration-agents-perth-Can-Be-Fun-For-Anyone.git
https://github.com/xidianzyh/flashcache.git
https://github.com/xidianzyh/liblogfaf.git
https://github.com/xidianzyh/liblogfaf.git
https://github.com/App1905/SwitchyOmega.git
https://github.com/App1905/SwitchyOmega.git
https://github.com/mel4/5-Essential-Elements-For-seo-perth.git
https://github.com/swcushman/superuser.git
https://github.com/zhsh1241/mytestcode.git
https://github.com/cmworld/logAnalysis.git
https://github.com/zaltor/extractfloats.git
https://github.com/joseph14c4zpebl/Seo-Philippines-Fundamentals-Explained.git
https://github.com/mubassirhayat/javascript.git
https://github.com/fobiasmog/sms_weather.git
https://github.com/XiaominZhang/raf.git
https://github.com/XiaominZhang/raf.git
https://github.com/profitbot62d6kc/Not-known-Details-About-langley-liquor-store-.git
https://github.com/joshuatwomey/Contra-Roll.git
https://github.com/jrdegroot/angular-flask.git
https://github.com/delphine61/5-Tips-about-removals-perth-You-Can-Use-Today.git
https://github.com/fanggogo/blog.git
https://github.com/xingskycn/CBZSplashView.git
https://github.com/purplepapa/allre.org.git
https://github.com/xingskycn/YISplashScreen.git
https://github.com/omar9483/Not-known-Factual-Statements-About-cantilever-shelf-.git
https://github.com/omar9483/Not-known-Factual-Statements-About-cantilever-shelf-.git
https://github.com/peterkokot/awesome-jquery.git
https://github.com/peterkokot/awesome-jquery.git
https://github.com/fracek144/TAS_sklep2014.git
https://github.com/DuanSkyDream/Test.git
https://github.com/ovenchang/nodejs-readfile.git
https://github.com/ovenchang/nodejs-readfile.git
https://github.com/thadde01/-KC4.COX.KR-QQ.git
https://github.com/thadde01/-KC4.COX.KR-QQ.git
https://github.com/syntonym/TextThem.git
https://github.com/tolis-e/node-android-emulator.git
https://github.com/profitbot62d6kc/The-5-Second-Trick-For-langley-liquor-store.git
https://github.com/profitbot62d6kc/The-5-Second-Trick-For-langley-liquor-store.git
https://github.com/onehao/opensource.git
https://github.com/hawasman/game1.git
https://github.com/cppforlife/cf-release.git
https://github.com/yingjerkao/dmrg101.git
https://github.com/zhagnx/learngit.git
https://github.com/eagleblade/Steam-XML-Parser.git